Circuit: * C:\Users\shivp\Desktop\2021eeb1030_Course_project\project_22nm.asc

Warning: toxe, toxp and dtox all given and toxe != toxp + dtox; dtox ignored.
Direct Newton iteration failed to find .op point.  (Use ".option noopiter" to skip.)
Starting Gmin stepping
Gmin = 10
Gmin = 1.07374
Gmin = 0.115292
Gmin = 0.0123794
Gmin = 0.00132923
Gmin = 0.000142725
Gmin = 1.5325e-05
Gmin = 1.6455e-06
Gmin = 1.76685e-07
Gmin = 1.89714e-08
Gmin = 2.03704e-09
Gmin = 2.18725e-10
Gmin = 2.34854e-11
Gmin = 2.52173e-12
Gmin = 2.70769e-13
Gmin = 0
Gmin stepping succeeded in finding the operating point.


Date: Tue Nov  7 22:07:56 2023
Total elapsed time: 0.221 seconds.

tnom = 27
temp = 27
method = modified trap
totiter = 2481
traniter = 2082
tranpoints = 1042
accept = 1042
rejected = 0
matrix size = 153
fillins = 6
solver = Normal
Avg thread counts: 3.9/3.7/3.6/2.3
Matrix Compiler1: 21.22 KB object code size  3.8/2.0/[1.7]
Matrix Compiler2: 17.23 KB object code size  2.0/4.4/[0.8]

